/*---------------------------------------------------------------------------*\
| =========                 |                                                 |
| \\      /  F ield         | OpenFOAM: The Open Source CFD Toolbox           |
|  \\    /   O peration     | Version:  4.0                                   |
|   \\  /    A nd           | Web:      www.OpenFOAM.org                      |
|    \\/     M anipulation  |                                                 |
\*---------------------------------------------------------------------------*/
Build  : 4.0-665f1db4c1f1
Exec   : /opt/openfoam4/platforms/linux64GccDPInt32Opt/bin/blockMesh
Date   : Oct 14 2016
Time   : 18:42:07
Host   : "victorPC"
PID    : 11265
Case   : /home/victor/Documents/Git/CFDcourse/project/TurbineMFR
nProcs : 1
sigFpe : Enabling floating point exception trapping (FOAM_SIGFPE).
fileModificationChecking : Monitoring run-time modified files using timeStampMaster
allowSystemOperations : Allowing user-supplied system call operations

// * * * * * * * * * * * * * * * * * * * * * * * * * * * * * * * * * * * * * //
Create time

Creating block mesh from
    "/home/victor/Documents/Git/CFDcourse/project/TurbineMFR/system/blockMeshDict"
Creating curved edges
Creating topology blocks
Creating topology patches

Creating block mesh topology

Check topology

	Basic statistics
		Number of internal faces : 0
		Number of boundary faces : 6
		Number of defined boundary faces : 6
		Number of undefined boundary faces : 0
	Checking patch -> block consistency

Creating block offsets
Creating merge list .

Creating polyMesh from blockMesh
Creating patches
Creating cells
Creating points with scale 1
    Block 0 cell size :
        i : 8.8 .. 8.8
        j : 11.3636 .. 11.3636
        k : 11.3636 .. 11.3636


There are no merge patch pairs edges

Writing polyMesh
----------------
Mesh Information
----------------
  boundingBox: (70 -10 -10) (114 240 240)
  nPoints: 3174
  nCells: 2420
  nFaces: 7964
  nInternalFaces: 6556
----------------
Patches
----------------
  patch 0 (start: 6556 size: 440) name: frontAndBack
  patch 1 (start: 6996 size: 484) name: inlet
  patch 2 (start: 7480 size: 484) name: outlet

End

/*---------------------------------------------------------------------------*\
| =========                 |                                                 |
| \\      /  F ield         | OpenFOAM: The Open Source CFD Toolbox           |
|  \\    /   O peration     | Version:  4.0                                   |
|   \\  /    A nd           | Web:      www.OpenFOAM.org                      |
|    \\/     M anipulation  |                                                 |
\*---------------------------------------------------------------------------*/
Build  : 4.0-665f1db4c1f1
Exec   : /opt/openfoam4/platforms/linux64GccDPInt32Opt/bin/snappyHexMesh -overwrite
Date   : Oct 14 2016
Time   : 18:42:12
Host   : "victorPC"
PID    : 11271
Case   : /home/victor/Documents/Git/CFDcourse/project/TurbineMFR
nProcs : 1
sigFpe : Enabling floating point exception trapping (FOAM_SIGFPE).
fileModificationChecking : Monitoring run-time modified files using timeStampMaster
allowSystemOperations : Allowing user-supplied system call operations

// * * * * * * * * * * * * * * * * * * * * * * * * * * * * * * * * * * * * * //
Create time

Create mesh for time = 0

Read mesh in = 0.01 s

Overall mesh bounding box  : (70 -10 -10) (114 240 240)
Relative tolerance         : 1e-06
Absolute matching distance : 0.000356281

Reading refinement surfaces.
--> FOAM Warning : 
    From function Foam::surfaceZonesInfo::surfaceZonesInfo(const Foam::searchableSurface&, const Foam::dictionary&)
    in file refinementSurfaces/surfaceZonesInfo.C at line 128
    Reading "/home/victor/Documents/Git/CFDcourse/project/TurbineMFR/system/snappyHexMeshDict.castellatedMeshControls.refinementSurfaces.LPSpool.stl" from line 189 to line 199
    Illegal entry zoneInside inside for faceZone rotor since surface is not closed.
Read refinement surfaces in = 0.16 s

Reading refinement shells.
Refinement level 4 for all cells inside box1x1x1
Read refinement shells in = 0 s

Setting refinement level of surface to be consistent with shells.
Checked shell refinement in = 0 s

Reading features.
Read features in = 0 s


Determining initial surface intersections
-----------------------------------------

Edge intersection testing:
    Number of edges             : 7964
    Number of edges to retest   : 7964
    Number of intersected edges : 1080
Calculated surface intersections in = 0.14 s

Initial mesh : cells:2420  faces:7964  points:3174
Cells per refinement level:
    0	2420

Adding patches for surface regions
----------------------------------

Patch Type                Region                        
----- ----                ------                        
Fan.stl:

3     patch               Fan.stl                       

HPSpool.stl:

4     patch               HPSpool.stl                   

LPSpool.stl:

5     patch               LPSpool.stl                   
6     patch               LPSpool.stl_slave             

NacelleStator.stl:

7     patch               NacelleStator.stl             

Added patches in = 0 s

Selecting decompositionMethod none
Layer thickness specified as final layer and expansion ratio.
--> FOAM Warning : 
    From function Foam::labelHashSet Foam::polyBoundaryMesh::patchSet(const Foam::UList<Foam::wordRe>&, bool, bool) const
    in file meshes/polyMesh/polyBoundaryMesh/polyBoundaryMesh.C at line 794
    Cannot find any patch or group names matching sphere.stl_firstSolid
--> FOAM Warning : 
    From function Foam::layerParameters::layerParameters(const Foam::dictionary&, const Foam::polyBoundaryMesh&)
    in file snappyHexMeshDriver/layerParameters/layerParameters.C at line 266
    Reading "/home/victor/Documents/Git/CFDcourse/project/TurbineMFR/system/snappyHexMeshDict.addLayersControls.layers" from line 387 to line 403
    Layer specification for sphere.stl_firstSolid does not match any patch.
Valid patches are 
8
(
frontAndBack
inlet
outlet
Fan.stl
HPSpool.stl
LPSpool.stl
LPSpool.stl_slave
NacelleStator.stl
)

--> FOAM Warning : 
    From function Foam::labelHashSet Foam::polyBoundaryMesh::patchSet(const Foam::UList<Foam::wordRe>&, bool, bool) const
    in file meshes/polyMesh/polyBoundaryMesh/polyBoundaryMesh.C at line 794
    Cannot find any patch or group names matching maxY
--> FOAM Warning : 
    From function Foam::layerParameters::layerParameters(const Foam::dictionary&, const Foam::polyBoundaryMesh&)
    in file snappyHexMeshDriver/layerParameters/layerParameters.C at line 266
    Reading "/home/victor/Documents/Git/CFDcourse/project/TurbineMFR/system/snappyHexMeshDict.addLayersControls.layers" from line 387 to line 403
    Layer specification for maxY does not match any patch.
Valid patches are 
8
(
frontAndBack
inlet
outlet
Fan.stl
HPSpool.stl
LPSpool.stl
LPSpool.stl_slave
NacelleStator.stl
)

--> FOAM Warning : 
    From function Foam::labelHashSet Foam::polyBoundaryMesh::patchSet(const Foam::UList<Foam::wordRe>&, bool, bool) const
    in file meshes/polyMesh/polyBoundaryMesh/polyBoundaryMesh.C at line 794
    Cannot find any patch or group names matching frozenPatches
--> FOAM Warning : 
    From function Foam::layerParameters::layerParameters(const Foam::dictionary&, const Foam::polyBoundaryMesh&)
    in file snappyHexMeshDriver/layerParameters/layerParameters.C at line 266
    Reading "/home/victor/Documents/Git/CFDcourse/project/TurbineMFR/system/snappyHexMeshDict.addLayersControls.layers" from line 387 to line 403
    Layer specification for frozenPatches does not match any patch.
Valid patches are 
8
(
frontAndBack
inlet
outlet
Fan.stl
HPSpool.stl
LPSpool.stl
LPSpool.stl_slave
NacelleStator.stl
)


Refinement phase
----------------

Found point (97.4432 140.534 124.221) in cell 1278 on processor 0

Surface refinement iteration 0
------------------------------

Marked for refinement due to surface intersection          : 1068 cells.
Marked for refinement due to curvature/regions             : 0 cells.
Determined cells to refine in = 0.03 s
Selected for refinement : 1068 cells (out of 2420)
Edge intersection testing:
    Number of edges             : 32771
    Number of edges to retest   : 31058
    Number of intersected edges : 5584
Refined mesh in = 0.07 s
After refinement surface refinement iteration 0 : cells:9896  faces:32771  points:13107
Cells per refinement level:
    0	1352
    1	8544

Surface refinement iteration 1
------------------------------

Marked for refinement due to surface intersection          : 5063 cells.
Marked for refinement due to curvature/regions             : 0 cells.
Determined cells to refine in = 0.01 s
Selected for refinement : 5377 cells (out of 9896)
Edge intersection testing:
    Number of edges             : 155510
    Number of edges to retest   : 152661
    Number of intersected edges : 28229
Refined mesh in = 0.36 s
After refinement surface refinement iteration 1 : cells:47535  faces:155510  points:60732
Cells per refinement level:
    0	1002
    1	6317
    2	40216

Surface refinement iteration 2
------------------------------

Marked for refinement due to surface intersection          : 235 cells.
Marked for refinement due to curvature/regions             : 16081 cells.
Determined cells to refine in = 0.16 s
Selected for refinement : 16899 cells (out of 47535)
Edge intersection testing:
    Number of edges             : 549170
    Number of edges to retest   : 514092
    Number of intersected edges : 122631
Refined mesh in = 1.34 s
After refinement surface refinement iteration 2 : cells:165828  faces:549170  points:218100
Cells per refinement level:
    0	901
    1	6408
    2	29871
    3	128648

Surface refinement iteration 3
------------------------------

Marked for refinement due to surface intersection          : 51 cells.
Marked for refinement due to curvature/regions             : 756 cells.
Determined cells to refine in = 0.47 s
Selected for refinement : 973 cells (out of 165828)
Edge intersection testing:
    Number of edges             : 571130
    Number of edges to retest   : 59817
    Number of intersected edges : 123855
Refined mesh in = 0.71 s
After refinement surface refinement iteration 3 : cells:172639  faces:571130  points:226400
Cells per refinement level:
    0	874
    1	6434
    2	30635
    3	134696

Surface refinement iteration 4
------------------------------

Marked for refinement due to surface intersection          : 0 cells.
Marked for refinement due to curvature/regions             : 77 cells.
Determined cells to refine in = 0.47 s
Selected for refinement : 107 cells (out of 172639)
Edge intersection testing:
    Number of edges             : 573575
    Number of edges to retest   : 8842
    Number of intersected edges : 123905
Refined mesh in = 0.62 s
After refinement surface refinement iteration 4 : cells:173388  faces:573575  points:227336
Cells per refinement level:
    0	870
    1	6440
    2	30766
    3	135312

Surface refinement iteration 5
------------------------------

Marked for refinement due to surface intersection          : 0 cells.
Marked for refinement due to curvature/regions             : 10 cells.
Determined cells to refine in = 0.46 s
Selected for refinement : 12 cells (out of 173388)
Edge intersection testing:
    Number of edges             : 573842
    Number of edges to retest   : 981
    Number of intersected edges : 123919
Refined mesh in = 0.6 s
After refinement surface refinement iteration 5 : cells:173472  faces:573842  points:227433
Cells per refinement level:
    0	870
    1	6438
    2	30772
    3	135392

Surface refinement iteration 6
------------------------------

Marked for refinement due to surface intersection          : 0 cells.
Marked for refinement due to curvature/regions             : 1 cells.
Determined cells to refine in = 0.46 s
Selected for refinement : 1 cells (out of 173472)
Edge intersection testing:
    Number of edges             : 573866
    Number of edges to retest   : 94
    Number of intersected edges : 123923
Refined mesh in = 0.58 s
After refinement surface refinement iteration 6 : cells:173479  faces:573866  points:227443
Cells per refinement level:
    0	870
    1	6438
    2	30771
    3	135400

Surface refinement iteration 7
------------------------------

Marked for refinement due to surface intersection          : 0 cells.
Marked for refinement due to curvature/regions             : 1 cells.
Determined cells to refine in = 0.47 s
Selected for refinement : 1 cells (out of 173479)
Edge intersection testing:
    Number of edges             : 573890
    Number of edges to retest   : 97
    Number of intersected edges : 123927
Refined mesh in = 0.59 s
After refinement surface refinement iteration 7 : cells:173486  faces:573890  points:227453
Cells per refinement level:
    0	870
    1	6438
    2	30770
    3	135408

Surface refinement iteration 8
------------------------------

Marked for refinement due to surface intersection          : 0 cells.
Marked for refinement due to curvature/regions             : 2 cells.
Determined cells to refine in = 0.46 s
Selected for refinement : 2 cells (out of 173486)
Edge intersection testing:
    Number of edges             : 573938
    Number of edges to retest   : 155
    Number of intersected edges : 123937
Refined mesh in = 0.59 s
After refinement surface refinement iteration 8 : cells:173500  faces:573938  points:227473
Cells per refinement level:
    0	870
    1	6438
    2	30768
    3	135424

Surface refinement iteration 9
------------------------------

Marked for refinement due to surface intersection          : 0 cells.
Marked for refinement due to curvature/regions             : 0 cells.
Determined cells to refine in = 0.46 s
Selected for refinement : 0 cells (out of 173500)
Stopping refining since too few cells selected.


Removing mesh beyond surface intersections
------------------------------------------

Found point (97.4432 140.534 124.221) in global region 2 out of 569 regions.
Keeping all cells in region 2 containing point (97.4432 140.534 124.221)
Selected for keeping : 163146 cells.
Edge intersection testing:
    Number of edges             : 542876
    Number of edges to retest   : 14000
    Number of intersected edges : 123937

Shell refinement iteration 0
----------------------------

Marked for refinement due to distance to explicit features : 0 cells.
Marked for refinement due to refinement shells             : 0 cells.
Determined cells to refine in = 2.61 s
Selected for internal refinement : 7817 cells (out of 163146)
Edge intersection testing:
    Number of edges             : 707468
    Number of edges to retest   : 412717
    Number of intersected edges : 124171
Refined mesh in = 1.24 s
After refinement shell refinement iteration 0 : cells:217865  faces:707468  points:272164
Cells per refinement level:
    0	189
    1	4277
    2	21444
    3	191955

Shell refinement iteration 1
----------------------------

Marked for refinement due to distance to explicit features : 0 cells.
Marked for refinement due to refinement shells             : 0 cells.
Determined cells to refine in = 0.14 s
Selected for internal refinement : 0 cells (out of 217865)
Stopping refining since too few cells selected.


Dangling coarse cells refinement iteration 0
--------------------------------------------

Determined cells to refine in = 0.01 s
Selected for refinement : 34 cells (out of 217865)
Edge intersection testing:
    Number of edges             : 707942
    Number of edges to retest   : 3679
    Number of intersected edges : 124171
Refined mesh in = 0.73 s
After refinement coarse cell refinement iteration 0 : cells:218103  faces:707942  points:272220
Cells per refinement level:
    0	189
    1	4277
    2	21410
    3	192227

Dangling coarse cells refinement iteration 1
--------------------------------------------

Determined cells to refine in = 0.01 s
Selected for refinement : 2 cells (out of 218103)
Edge intersection testing:
    Number of edges             : 707969
    Number of edges to retest   : 220
    Number of intersected edges : 124171
Refined mesh in = 0.74 s
After refinement coarse cell refinement iteration 1 : cells:218117  faces:707969  points:272223
Cells per refinement level:
    0	189
    1	4277
    2	21408
    3	192243

Dangling coarse cells refinement iteration 2
--------------------------------------------

Determined cells to refine in = 0.01 s
Selected for refinement : 0 cells (out of 218117)
Stopping refining since too few cells selected.


Dangling coarse cells refinement iteration 0
--------------------------------------------

Determined cells to refine in = 0.01 s
Selected for refinement : 62 cells (out of 218117)
Edge intersection testing:
    Number of edges             : 708713
    Number of edges to retest   : 7396
    Number of intersected edges : 124171
Refined mesh in = 0.77 s
After refinement coarse cell refinement iteration 0 : cells:218551  faces:708713  points:272285
Cells per refinement level:
    0	189
    1	4277
    2	21346
    3	192739

Dangling coarse cells refinement iteration 1
--------------------------------------------

Determined cells to refine in = 0.01 s
Selected for refinement : 0 cells (out of 218551)
Stopping refining since too few cells selected.


Splitting mesh at surface intersections
---------------------------------------

Introducing baffles for 124171 faces that are intersected by the surface.

Edge intersection testing:
    Number of edges             : 814127
    Number of edges to retest   : 514338
    Number of intersected edges : 229585
Created baffles in = 1.49 s


After introducing baffles : cells:218551  faces:814127  points:272285
Cells per refinement level:
    0	189
    1	4277
    2	21346
    3	192739

Introducing baffles to block off problem cells
----------------------------------------------

markFacesOnProblemCells : marked 86869 additional internal faces to be converted into baffles.
Analyzed problem cells in = 0.62 s


Introducing baffles to delete problem cells.

Edge intersection testing:
    Number of edges             : 900996
    Number of edges to retest   : 331714
    Number of intersected edges : 229585
Created baffles in = 1.16 s


After introducing baffles : cells:218551  faces:900996  points:272285
Cells per refinement level:
    0	189
    1	4277
    2	21346
    3	192739

Remove unreachable sections of mesh
-----------------------------------

Keeping all cells in region 7 containing point (97.4432 140.534 124.221)
Selected for keeping : 140475 cells.
Edge intersection testing:
    Number of edges             : 498929
    Number of edges to retest   : 0
    Number of intersected edges : 96356
Split mesh in = 2.71 s


After subsetting : cells:140475  faces:498929  points:210815
Cells per refinement level:
    0	189
    1	4277
    2	21345
    3	114664

Introducing zones for interfaces
--------------------------------

Surface : LPSpool.stl
    faceZone : rotor
    cellZone : rotor
Walking from location-in-mesh (97.4432 140.534 124.221) to assign cellZones - crossing a faceZone face changes cellZone

Found point (97.4432 140.534 124.221) in global region 0 out of 977 regions.
Detected 8386 free-standing zone faces
Protected from visiting 189 non-manifold edges

Split 8386 free-standing zone faces into 268 disconnected regions with size (negative denotes wrong orientation) :
    0	179
    1	-345
    2	-319
    3	514
    4	162
    5	-103
    6	77
    7	86
    8	351
    9	-198
    10	-537
    11	140
    12	-156
    13	175
    14	64
    15	-68
    16	38
    17	-15
    18	-24
    19	-67
    20	25
    21	-48
    22	-54
    23	78
    24	-90
    25	-1
    26	-181
    27	1
    28	-1
    29	-37
    30	3
    31	-1
    32	-17
    33	-3
    34	159
    35	66
    36	40
    37	-1
    38	-4
    39	-69
    40	181
    41	-63
    42	-1
    43	-55
    44	-1
    45	43
    46	84
    47	1
    48	20
    49	-18
    50	96
    51	-1
    52	-4
    53	-1
    54	-2
    55	3
    56	1
    57	-1
    58	38
    59	-2
    60	69
    61	40
    62	1
    63	-1
    64	-1
    65	-1
    66	8
    67	-1
    68	-1
    69	-1
    70	25
    71	-1
    72	1
    73	-1
    74	-1
    75	-1
    76	-3
    77	-1
    78	-3
    79	14
    80	-1
    81	1
    82	-39
    83	-1
    84	-1
    85	-1
    86	-1
    87	1
    88	-1
    89	1
    90	1
    91	-1
    92	-1
    93	-1
    94	-1
    95	-1
    96	0
    97	1
    98	-1
    99	-1
    100	-2
    101	-22
    102	-1
    103	-1
    104	-1
    105	-1
    106	-2
    107	1
    108	1
    109	-1
    110	0
    111	1
    112	1
    113	-1
    114	1
    115	-1
    116	1
    117	10
    118	2
    119	1
    120	-1
    121	1
    122	1
    123	1
    124	-2
    125	-1
    126	-1
    127	-1
    128	1
    129	-1
    130	1
    131	1
    132	1
    133	1
    134	1
    135	-1
    136	-1
    137	1
    138	1
    139	-2
    140	-3
    141	-1
    142	1
    143	-1
    144	-1
    145	1
    146	-1
    147	1
    148	-1
    149	1
    150	-1
    151	-1
    152	-1
    153	-1
    154	1
    155	-1
    156	-1
    157	1
    158	-1
    159	-1
    160	1
    161	-1
    162	-1
    163	1
    164	3
    165	1
    166	1
    167	-1
    168	1
    169	-1
    170	-1
    171	1
    172	3
    173	1
    174	1
    175	-1
    176	1
    177	-1
    178	-1
    179	-1
    180	-1
    181	-1
    182	-1
    183	-1
    184	-1
    185	-1
    186	-4
    187	1
    188	-2
    189	-1
    190	1
    191	-1
    192	-1
    193	-1
    194	1
    195	-1
    196	-2
    197	-1
    198	1
    199	1
    200	-1
    201	1
    202	-3
    203	1
    204	1
    205	1
    206	1
    207	2
    208	1
    209	-1
    210	-3
    211	-1
    212	-1
    213	-1
    214	1
    215	1
    216	1
    217	1
    218	0
    219	-1
    220	-1
    221	1
    222	1
    223	1
    224	-1
    225	-1
    226	1
    227	1
    228	1
    229	-1
    230	-1
    231	1
    232	2
    233	1
    234	1
    235	2
    236	2
    237	5
    238	2
    239	-1
    240	1
    241	2
    242	2
    243	-1
    244	-1
    245	1
    246	1
    247	1
    248	-1
    249	-1
    250	1
    251	1
    252	-1
    253	-1
    254	-1
    255	-1
    256	-1
    257	1
    258	1
    259	-2
    260	-1
    261	-1
    262	-1
    263	-1
    264	-1
    265	0
    266	1
    267	1

Protected from visiting 189 non-manifold edges

CellZones:
    rotor	size:4963

FaceZones:
    rotor	size:18236

Edge intersection testing:
    Number of edges             : 498929
    Number of edges to retest   : 0
    Number of intersected edges : 96356

Handling cells with snap problems
---------------------------------

Introducing baffles for 96356 faces that are intersected by the surface.

Edge intersection testing:
    Number of edges             : 498929
    Number of edges to retest   : 232075
    Number of intersected edges : 96356
Created baffles in = 4.56 s


After introducing baffles : cells:140475  faces:498929  points:210815
Cells per refinement level:
    0	189
    1	4277
    2	21345
    3	114664

Introducing baffles to block off problem cells
----------------------------------------------

markFacesOnProblemCells : marked 151 additional internal faces to be converted into baffles.
Analyzed problem cells in = 0.39 s


Introducing baffles to delete problem cells.

Edge intersection testing:
    Number of edges             : 499080
    Number of edges to retest   : 745
    Number of intersected edges : 96356
Created baffles in = 0.41 s


After introducing baffles : cells:140475  faces:499080  points:210815
Cells per refinement level:
    0	189
    1	4277
    2	21345
    3	114664

Remove unreachable sections of mesh
-----------------------------------

Keeping all cells in region 0 containing point (97.4432 140.534 124.221)
Selected for keeping : 140407 cells.
Edge intersection testing:
    Number of edges             : 498672
    Number of edges to retest   : 0
    Number of intersected edges : 96248
Split mesh in = 1.74 s


After subsetting : cells:140407  faces:498672  points:210735
Cells per refinement level:
    0	189
    1	4277
    2	21345
    3	114596

Merge free-standing baffles
---------------------------

freeStandingBaffles : detected 397 free-standing baffles out of 1623

freeStandingBaffles : detected 25 planar (within 30 degrees) free-standing baffles out of 397

Detected free-standing baffles : 25
Edge intersection testing:
    Number of edges             : 498647
    Number of edges to retest   : 25
    Number of intersected edges : 96223

Introducing baffles to block off problem cells
----------------------------------------------

markFacesOnProblemCells : marked 46 additional internal faces to be converted into baffles.
Analyzed problem cells in = 0.98 s


Introducing baffles to delete problem cells.

Edge intersection testing:
    Number of edges             : 498693
    Number of edges to retest   : 231
    Number of intersected edges : 96223
Created baffles in = 0.42 s


After introducing baffles : cells:140407  faces:498693  points:210735
Cells per refinement level:
    0	189
    1	4277
    2	21345
    3	114596
Merged free-standing baffles in = 0 s


dupNonManifoldPoints : Found : 8052 non-manifold points (out of 210735)
Edge intersection testing:
    Number of edges             : 498693
    Number of edges to retest   : 0
    Number of intersected edges : 96223
Detected unsplittable baffles : 0

Merge refined boundary faces
----------------------------

Merging 5 sets of faces.

Edge intersection testing:
    Number of edges             : 498688
    Number of edges to retest   : 68
    Number of intersected edges : 96218

Undo iteration 0
----------------
Checking faces in error :
    non-orthogonality > 65  degrees                        : 0
    faces with face pyramid volume < 1e-13                 : 0
    faces with face-decomposition tet quality < 1e-15      : 0
    faces with concavity > 80  degrees                     : 0
    faces with skewness > 4   (internal) or 20  (boundary) : 0
    faces with interpolation weights (0..1)  < 0.05        : 0
    faces with volume ratio of neighbour cells < 0.01      : 0
    faces with face twist < 0.02                           : 0
    faces on cells with determinant < 0.001                : 0

Merging all points on surface that
- are used by only two boundary faces and
- make an angle with a cosine of more than 0.707107.

No straight edges simplified and no points removed ...
Refined mesh : cells:140407  faces:498688  points:218860
Cells per refinement level:
    0	189
    1	4277
    2	21345
    3	114596
Writing mesh to time constant
Wrote mesh in = 3.59 s.
Mesh refined in = 33.25 s.

Morphing phase
--------------

Converting zoned faces into baffles ...
For zone rotor found patches LPSpool.stl and LPSpool.stl_slave
Edge intersection testing:
    Number of edges             : 516905
    Number of edges to retest   : 81681
    Number of intersected edges : 114347
Created 18217 baffles in = 0.59 s



Snapping to features in 10 iterations ...
Constructing mesh displacer ...
Using mesh parameters 
{
    maxNonOrtho     65;
    maxBoundarySkewness 20;
    maxInternalSkewness 4;
    maxConcave      80;
    minVol          1e-13;
    minTetQuality   1e-15;
    minArea         -1;
    minTwist        0.02;
    minDeterminant  0.001;
    minFaceWeight   0.05;
    minVolRatio     0.01;
    minTriangleTwist -1;
    relaxed
    {
        maxNonOrtho     75;
    }
    nSmoothScale    4;
    errorReduction  0.75;
}


Checking initial mesh ...
Checking faces in error :
    non-orthogonality > 65  degrees                        : 0
    faces with face pyramid volume < 1e-13                 : 0
    faces with face-decomposition tet quality < 1e-15      : 0
    faces with concavity > 80  degrees                     : 0
    faces with skewness > 4   (internal) or 20  (boundary) : 0
    faces with interpolation weights (0..1)  < 0.05        : 0
    faces with volume ratio of neighbour cells < 0.01      : 0
    faces with face twist < 0.02                           : 0
    faces on cells with determinant < 0.001                : 0
Detected 0 illegal faces (concave, zero area or negative cell pyramid volume)
Checked initial mesh in = 1.39 s


Smoothing patch points ...
Smoothing iteration 0
Found 16177 non-manifold point(s).

Scaling iteration 0
Moving mesh using displacement scaling : min:1  max:1
Checking faces in error :
    non-orthogonality > 65  degrees                        : 0
    faces with face pyramid volume < 1e-13                 : 0
    faces with face-decomposition tet quality < 1e-15      : 29
    faces with concavity > 80  degrees                     : 0
    faces with skewness > 4   (internal) or 20  (boundary) : 0
    faces with interpolation weights (0..1)  < 0.05        : 0
    faces with volume ratio of neighbour cells < 0.01      : 0
    faces with face twist < 0.02                           : 69
    faces on cells with determinant < 0.001                : 0

Scaling iteration 1
Moving mesh using displacement scaling : min:0.75  max:1
Checking faces in error :
    non-orthogonality > 65  degrees                        : 0
    faces with face pyramid volume < 1e-13                 : 0
    faces with face-decomposition tet quality < 1e-15      : 0
    faces with concavity > 80  degrees                     : 0
    faces with skewness > 4   (internal) or 20  (boundary) : 0
    faces with interpolation weights (0..1)  < 0.05        : 0
    faces with volume ratio of neighbour cells < 0.01      : 0
    faces with face twist < 0.02                           : 0
    faces on cells with determinant < 0.001                : 0
Successfully moved mesh

Smoothing iteration 1
Found 0 non-manifold point(s).

Scaling iteration 0
Moving mesh using displacement scaling : min:1  max:1
Checking faces in error :
    non-orthogonality > 65  degrees                        : 0
    faces with face pyramid volume < 1e-13                 : 0
    faces with face-decomposition tet quality < 1e-15      : 0
    faces with concavity > 80  degrees                     : 0
    faces with skewness > 4   (internal) or 20  (boundary) : 0
    faces with interpolation weights (0..1)  < 0.05        : 0
    faces with volume ratio of neighbour cells < 0.01      : 0
    faces with face twist < 0.02                           : 0
    faces on cells with determinant < 0.001                : 0
Successfully moved mesh

Smoothing iteration 2
Found 0 non-manifold point(s).

Scaling iteration 0
Moving mesh using displacement scaling : min:1  max:1
Checking faces in error :
    non-orthogonality > 65  degrees                        : 0
    faces with face pyramid volume < 1e-13                 : 0
    faces with face-decomposition tet quality < 1e-15      : 2
    faces with concavity > 80  degrees                     : 0
    faces with skewness > 4   (internal) or 20  (boundary) : 0
    faces with interpolation weights (0..1)  < 0.05        : 0
    faces with volume ratio of neighbour cells < 0.01      : 0
    faces with face twist < 0.02                           : 0
    faces on cells with determinant < 0.001                : 0

Scaling iteration 1
Moving mesh using displacement scaling : min:0.75  max:1
Checking faces in error :
    non-orthogonality > 65  degrees                        : 0
    faces with face pyramid volume < 1e-13                 : 0
    faces with face-decomposition tet quality < 1e-15      : 1
    faces with concavity > 80  degrees                     : 0
    faces with skewness > 4   (internal) or 20  (boundary) : 0
    faces with interpolation weights (0..1)  < 0.05        : 0
    faces with volume ratio of neighbour cells < 0.01      : 0
    faces with face twist < 0.02                           : 0
    faces on cells with determinant < 0.001                : 0

Scaling iteration 2
Moving mesh using displacement scaling : min:0.5625  max:1
Checking faces in error :
    non-orthogonality > 65  degrees                        : 0
    faces with face pyramid volume < 1e-13                 : 0
    faces with face-decomposition tet quality < 1e-15      : 0
    faces with concavity > 80  degrees                     : 0
    faces with skewness > 4   (internal) or 20  (boundary) : 0
    faces with interpolation weights (0..1)  < 0.05        : 0
    faces with volume ratio of neighbour cells < 0.01      : 0
    faces with face twist < 0.02                           : 0
    faces on cells with determinant < 0.001                : 0
Successfully moved mesh

Patch points smoothed in = 4.4 s



Morph iteration 0
-----------------
Calculating patchDisplacement as distance to nearest surface point ...
Wanted displacement : average:0.273464 min:2.25603e-06 max:1.39307
Calculated surface displacement in = 0.35 s


Detecting near surfaces ...
Overriding nearest with intersection of close gaps at 3020 out of 96794 points.
Overriding displacement on features :
   implicit features    : false
   explicit features    : true
   multi-patch features : false

Detected 2914 baffle edges out of 193977 edges.
Initially selected 10340 points out of 96794 for reverse attraction.
Selected 27119 points out of 96794 for reverse attraction.
Stringing feature edges : changed 0 points
Attraction:
     linear   : max:(1.04207 -0.750975 -0.539241) avg:(-0.00622691 0.000117503 -0.000753633)
     feature  : max:(0 0 0) avg:(0 0 0)
Feature analysis : total master points:96794 attraction to :
    feature point   : 0
    feature edge    : 0
    nearest surface : 0
    rest            : 96794

--> FOAM Warning : Displacement (0.002692 -0.00374804 -0.0133176) at mesh point 368 coord (105.46 103.585 69.7477) points through the surrounding patch faces
Smoothing displacement ...
Iteration 0
Iteration 10
Iteration 20
Displacement smoothed in = 1.99 s


Moving mesh ...

Iteration 0
Moving mesh using displacement scaling : min:1  max:1
Checking faces in error :
    non-orthogonality > 65  degrees                        : 0
    faces with face pyramid volume < 1e-13                 : 0
    faces with face-decomposition tet quality < 1e-15      : 0
    faces with concavity > 80  degrees                     : 0
    faces with skewness > 4   (internal) or 20  (boundary) : 0
    faces with interpolation weights (0..1)  < 0.05        : 0
    faces with volume ratio of neighbour cells < 0.01      : 0
    faces with face twist < 0.02                           : 0
    faces on cells with determinant < 0.001                : 0
Successfully moved mesh
Moved mesh in = 0.93 s



Morph iteration 1
-----------------
Calculating patchDisplacement as distance to nearest surface point ...
Wanted displacement : average:0.256066 min:7.90255e-07 max:1.38086
Calculated surface displacement in = 0.25 s


Detecting near surfaces ...
Overriding nearest with intersection of close gaps at 3122 out of 96794 points.
Overriding displacement on features :
   implicit features    : false
   explicit features    : true
   multi-patch features : false

Detected 2963 baffle edges out of 193977 edges.
Initially selected 10355 points out of 96794 for reverse attraction.
Selected 27119 points out of 96794 for reverse attraction.
Stringing feature edges : changed 0 points
Attraction:
     linear   : max:(1.03293 -0.74439 -0.534512) avg:(-0.00581971 7.57107e-05 -0.000704322)
     feature  : max:(0 0 0) avg:(0 0 0)
Feature analysis : total master points:96794 attraction to :
    feature point   : 0
    feature edge    : 0
    nearest surface : 0
    rest            : 96794

--> FOAM Warning : Displacement (0.00404136 -0.00593495 -0.0226272) at mesh point 368 coord (105.462 103.582 69.7344) points through the surrounding patch faces
Smoothing displacement ...
Iteration 0
Iteration 10
Iteration 20
Displacement smoothed in = 1.85 s


Moving mesh ...

Iteration 0
Moving mesh using displacement scaling : min:1  max:1
Checking faces in error :
    non-orthogonality > 65  degrees                        : 0
    faces with face pyramid volume < 1e-13                 : 1
    faces with face-decomposition tet quality < 1e-15      : 8
    faces with concavity > 80  degrees                     : 0
    faces with skewness > 4   (internal) or 20  (boundary) : 0
    faces with interpolation weights (0..1)  < 0.05        : 0
    faces with volume ratio of neighbour cells < 0.01      : 0
    faces with face twist < 0.02                           : 0
    faces on cells with determinant < 0.001                : 0

Iteration 1
Moving mesh using displacement scaling : min:0.75  max:1
Checking faces in error :
    non-orthogonality > 65  degrees                        : 0
    faces with face pyramid volume < 1e-13                 : 0
    faces with face-decomposition tet quality < 1e-15      : 3
    faces with concavity > 80  degrees                     : 0
    faces with skewness > 4   (internal) or 20  (boundary) : 0
    faces with interpolation weights (0..1)  < 0.05        : 0
    faces with volume ratio of neighbour cells < 0.01      : 0
    faces with face twist < 0.02                           : 0
    faces on cells with determinant < 0.001                : 0

Iteration 2
Moving mesh using displacement scaling : min:0.5625  max:1
Checking faces in error :
    non-orthogonality > 65  degrees                        : 0
    faces with face pyramid volume < 1e-13                 : 0
    faces with face-decomposition tet quality < 1e-15      : 1
    faces with concavity > 80  degrees                     : 0
    faces with skewness > 4   (internal) or 20  (boundary) : 0
    faces with interpolation weights (0..1)  < 0.05        : 0
    faces with volume ratio of neighbour cells < 0.01      : 0
    faces with face twist < 0.02                           : 0
    faces on cells with determinant < 0.001                : 0

Iteration 3
Moving mesh using displacement scaling : min:0.421875  max:1
Checking faces in error :
    non-orthogonality > 65  degrees                        : 0
    faces with face pyramid volume < 1e-13                 : 0
    faces with face-decomposition tet quality < 1e-15      : 1
    faces with concavity > 80  degrees                     : 0
    faces with skewness > 4   (internal) or 20  (boundary) : 0
    faces with interpolation weights (0..1)  < 0.05        : 0
    faces with volume ratio of neighbour cells < 0.01      : 0
    faces with face twist < 0.02                           : 0
    faces on cells with determinant < 0.001                : 0

Iteration 4
Moving mesh using displacement scaling : min:0.316406  max:1
Checking faces in error :
    non-orthogonality > 65  degrees                        : 0
    faces with face pyramid volume < 1e-13                 : 0
    faces with face-decomposition tet quality < 1e-15      : 1
    faces with concavity > 80  degrees                     : 0
    faces with skewness > 4   (internal) or 20  (boundary) : 0
    faces with interpolation weights (0..1)  < 0.05        : 0
    faces with volume ratio of neighbour cells < 0.01      : 0
    faces with face twist < 0.02                           : 0
    faces on cells with determinant < 0.001                : 0

Iteration 5
Displacement scaling for error reduction set to 0.
Moving mesh using displacement scaling : min:0.237305  max:1
Checking faces in error :
    non-orthogonality > 65  degrees                        : 0
    faces with face pyramid volume < 1e-13                 : 0
    faces with face-decomposition tet quality < 1e-15      : 1
    faces with concavity > 80  degrees                     : 0
    faces with skewness > 4   (internal) or 20  (boundary) : 0
    faces with interpolation weights (0..1)  < 0.05        : 0
    faces with volume ratio of neighbour cells < 0.01      : 0
    faces with face twist < 0.02                           : 0
    faces on cells with determinant < 0.001                : 0

Iteration 6
Moving mesh using displacement scaling : min:0  max:1
Checking faces in error :
    non-orthogonality > 65  degrees                        : 0
    faces with face pyramid volume < 1e-13                 : 0
    faces with face-decomposition tet quality < 1e-15      : 0
    faces with concavity > 80  degrees                     : 0
    faces with skewness > 4   (internal) or 20  (boundary) : 0
    faces with interpolation weights (0..1)  < 0.05        : 0
    faces with volume ratio of neighbour cells < 0.01      : 0
    faces with face twist < 0.02                           : 0
    faces on cells with determinant < 0.001                : 0
Successfully moved mesh
Moved mesh in = 2.84 s



Morph iteration 2
-----------------
Calculating patchDisplacement as distance to nearest surface point ...
Wanted displacement : average:0.223524 min:1.83344e-06 max:1.36512
Calculated surface displacement in = 0.25 s


Detecting near surfaces ...
Overriding nearest with intersection of close gaps at 3369 out of 96794 points.
Overriding displacement on features :
   implicit features    : false
   explicit features    : true
   multi-patch features : false

Detected 2998 baffle edges out of 193977 edges.
Initially selected 10341 points out of 96794 for reverse attraction.
Selected 27109 points out of 96794 for reverse attraction.
Stringing feature edges : changed 0 points
Attraction:
     linear   : max:(1.01966 -0.607492 0.674394) avg:(-0.00510649 0.000150426 -0.000584362)
     feature  : max:(0 0 0) avg:(0 0 0)
Feature analysis : total master points:96794 attraction to :
    feature point   : 0
    feature edge    : 0
    nearest surface : 0
    rest            : 96794

--> FOAM Warning : Displacement (0.00398602 -0.0065037 -0.0262853) at mesh point 368 coord (105.466 103.576 69.7117) points through the surrounding patch faces
Smoothing displacement ...
Iteration 0
Iteration 10
Iteration 20
Displacement smoothed in = 1.84 s


Moving mesh ...

Iteration 0
Moving mesh using displacement scaling : min:1  max:1
Checking faces in error :
    non-orthogonality > 65  degrees                        : 0
    faces with face pyramid volume < 1e-13                 : 21
    faces with face-decomposition tet quality < 1e-15      : 36
    faces with concavity > 80  degrees                     : 1
    faces with skewness > 4   (internal) or 20  (boundary) : 0
    faces with interpolation weights (0..1)  < 0.05        : 0
    faces with volume ratio of neighbour cells < 0.01      : 0
    faces with face twist < 0.02                           : 0
    faces on cells with determinant < 0.001                : 0

Iteration 1
Moving mesh using displacement scaling : min:0.75  max:1
Checking faces in error :
    non-orthogonality > 65  degrees                        : 0
    faces with face pyramid volume < 1e-13                 : 20
    faces with face-decomposition tet quality < 1e-15      : 22
    faces with concavity > 80  degrees                     : 1
    faces with skewness > 4   (internal) or 20  (boundary) : 0
    faces with interpolation weights (0..1)  < 0.05        : 0
    faces with volume ratio of neighbour cells < 0.01      : 0
    faces with face twist < 0.02                           : 0
    faces on cells with determinant < 0.001                : 0

Iteration 2
Moving mesh using displacement scaling : min:0.5625  max:1
Checking faces in error :
    non-orthogonality > 65  degrees                        : 0
    faces with face pyramid volume < 1e-13                 : 14
    faces with face-decomposition tet quality < 1e-15      : 17
    faces with concavity > 80  degrees                     : 2
    faces with skewness > 4   (internal) or 20  (boundary) : 0
    faces with interpolation weights (0..1)  < 0.05        : 0
    faces with volume ratio of neighbour cells < 0.01      : 0
    faces with face twist < 0.02                           : 1
    faces on cells with determinant < 0.001                : 0

Iteration 3
Moving mesh using displacement scaling : min:0.421875  max:1
Checking faces in error :
    non-orthogonality > 65  degrees                        : 0
    faces with face pyramid volume < 1e-13                 : 7
    faces with face-decomposition tet quality < 1e-15      : 18
    faces with concavity > 80  degrees                     : 1
    faces with skewness > 4   (internal) or 20  (boundary) : 0
    faces with interpolation weights (0..1)  < 0.05        : 0
    faces with volume ratio of neighbour cells < 0.01      : 0
    faces with face twist < 0.02                           : 1
    faces on cells with determinant < 0.001                : 0

Iteration 4
Moving mesh using displacement scaling : min:0.316406  max:1
Checking faces in error :
    non-orthogonality > 65  degrees                        : 0
    faces with face pyramid volume < 1e-13                 : 4
    faces with face-decomposition tet quality < 1e-15      : 15
    faces with concavity > 80  degrees                     : 0
    faces with skewness > 4   (internal) or 20  (boundary) : 0
    faces with interpolation weights (0..1)  < 0.05        : 0
    faces with volume ratio of neighbour cells < 0.01      : 0
    faces with face twist < 0.02                           : 3
    faces on cells with determinant < 0.001                : 0

Iteration 5
Displacement scaling for error reduction set to 0.
Moving mesh using displacement scaling : min:0.237305  max:1
Checking faces in error :
    non-orthogonality > 65  degrees                        : 0
    faces with face pyramid volume < 1e-13                 : 2
    faces with face-decomposition tet quality < 1e-15      : 11
    faces with concavity > 80  degrees                     : 0
    faces with skewness > 4   (internal) or 20  (boundary) : 0
    faces with interpolation weights (0..1)  < 0.05        : 0
    faces with volume ratio of neighbour cells < 0.01      : 0
    faces with face twist < 0.02                           : 0
    faces on cells with determinant < 0.001                : 0

Iteration 6
Moving mesh using displacement scaling : min:0  max:1
Checking faces in error :
    non-orthogonality > 65  degrees                        : 0
    faces with face pyramid volume < 1e-13                 : 0
    faces with face-decomposition tet quality < 1e-15      : 0
    faces with concavity > 80  degrees                     : 0
    faces with skewness > 4   (internal) or 20  (boundary) : 0
    faces with interpolation weights (0..1)  < 0.05        : 0
    faces with volume ratio of neighbour cells < 0.01      : 0
    faces with face twist < 0.02                           : 0
    faces on cells with determinant < 0.001                : 0
Successfully moved mesh
Moved mesh in = 2.93 s



Morph iteration 3
-----------------
Calculating patchDisplacement as distance to nearest surface point ...
Wanted displacement : average:0.182102 min:4.68745e-06 max:1.35168
Calculated surface displacement in = 0.25 s


Detecting near surfaces ...
Overriding nearest with intersection of close gaps at 4122 out of 96794 points.
Overriding displacement on features :
   implicit features    : false
   explicit features    : true
   multi-patch features : false

Detected 3037 baffle edges out of 193977 edges.
Initially selected 10324 points out of 96794 for reverse attraction.
Selected 27087 points out of 96794 for reverse attraction.
Stringing feature edges : changed 0 points
Attraction:
     linear   : max:(1.00962 -0.601509 0.667752) avg:(-0.00408475 -1.15564e-05 -0.000470206)
     feature  : max:(0 0 0) avg:(0 0 0)
Feature analysis : total master points:96794 attraction to :
    feature point   : 0
    feature edge    : 0
    nearest surface : 0
    rest            : 96794

--> FOAM Warning : Displacement (0.00185756 -0.00540072 -0.0255536) at mesh point 368 coord (105.47 103.569 69.6855) points through the surrounding patch faces
Smoothing displacement ...
Iteration 0
Iteration 10
Iteration 20
Displacement smoothed in = 1.92 s


Moving mesh ...

Iteration 0
Moving mesh using displacement scaling : min:1  max:1
Checking faces in error :
    non-orthogonality > 65  degrees                        : 0
    faces with face pyramid volume < 1e-13                 : 43
    faces with face-decomposition tet quality < 1e-15      : 34
    faces with concavity > 80  degrees                     : 0
    faces with skewness > 4   (internal) or 20  (boundary) : 0
    faces with interpolation weights (0..1)  < 0.05        : 0
    faces with volume ratio of neighbour cells < 0.01      : 0
    faces with face twist < 0.02                           : 0
    faces on cells with determinant < 0.001                : 0

Iteration 1
Moving mesh using displacement scaling : min:0.75  max:1
Checking faces in error :
    non-orthogonality > 65  degrees                        : 0
    faces with face pyramid volume < 1e-13                 : 28
    faces with face-decomposition tet quality < 1e-15      : 43
    faces with concavity > 80  degrees                     : 0
    faces with skewness > 4   (internal) or 20  (boundary) : 0
    faces with interpolation weights (0..1)  < 0.05        : 0
    faces with volume ratio of neighbour cells < 0.01      : 0
    faces with face twist < 0.02                           : 1
    faces on cells with determinant < 0.001                : 0

Iteration 2
Moving mesh using displacement scaling : min:0.5625  max:1
Checking faces in error :
    non-orthogonality > 65  degrees                        : 0
    faces with face pyramid volume < 1e-13                 : 24
    faces with face-decomposition tet quality < 1e-15      : 37
    faces with concavity > 80  degrees                     : 2
    faces with skewness > 4   (internal) or 20  (boundary) : 0
    faces with interpolation weights (0..1)  < 0.05        : 0
    faces with volume ratio of neighbour cells < 0.01      : 0
    faces with face twist < 0.02                           : 1
    faces on cells with determinant < 0.001                : 0

Iteration 3
Moving mesh using displacement scaling : min:0.421875  max:1
Checking faces in error :
    non-orthogonality > 65  degrees                        : 0
    faces with face pyramid volume < 1e-13                 : 22
    faces with face-decomposition tet quality < 1e-15      : 31
    faces with concavity > 80  degrees                     : 1
    faces with skewness > 4   (internal) or 20  (boundary) : 0
    faces with interpolation weights (0..1)  < 0.05        : 0
    faces with volume ratio of neighbour cells < 0.01      : 0
    faces with face twist < 0.02                           : 0
    faces on cells with determinant < 0.001                : 0

Iteration 4
Moving mesh using displacement scaling : min:0.316406  max:1
Checking faces in error :
    non-orthogonality > 65  degrees                        : 0
    faces with face pyramid volume < 1e-13                 : 17
    faces with face-decomposition tet quality < 1e-15      : 22
    faces with concavity > 80  degrees                     : 2
    faces with skewness > 4   (internal) or 20  (boundary) : 0
    faces with interpolation weights (0..1)  < 0.05        : 0
    faces with volume ratio of neighbour cells < 0.01      : 0
    faces with face twist < 0.02                           : 1
    faces on cells with determinant < 0.001                : 0

Iteration 5
Displacement scaling for error reduction set to 0.
Moving mesh using displacement scaling : min:0.237305  max:1
Checking faces in error :
    non-orthogonality > 65  degrees                        : 0
    faces with face pyramid volume < 1e-13                 : 9
    faces with face-decomposition tet quality < 1e-15      : 24
    faces with concavity > 80  degrees                     : 1
    faces with skewness > 4   (internal) or 20  (boundary) : 0
    faces with interpolation weights (0..1)  < 0.05        : 0
    faces with volume ratio of neighbour cells < 0.01      : 0
    faces with face twist < 0.02                           : 0
    faces on cells with determinant < 0.001                : 0

Iteration 6
Moving mesh using displacement scaling : min:0  max:1
Checking faces in error :
    non-orthogonality > 65  degrees                        : 0
    faces with face pyramid volume < 1e-13                 : 0
    faces with face-decomposition tet quality < 1e-15      : 0
    faces with concavity > 80  degrees                     : 0
    faces with skewness > 4   (internal) or 20  (boundary) : 0
    faces with interpolation weights (0..1)  < 0.05        : 0
    faces with volume ratio of neighbour cells < 0.01      : 0
    faces with face twist < 0.02                           : 0
    faces on cells with determinant < 0.001                : 0
Successfully moved mesh
Moved mesh in = 2.77 s



Morph iteration 4
-----------------
Calculating patchDisplacement as distance to nearest surface point ...
Wanted displacement : average:0.139147 min:6.72291e-07 max:1.33509
Calculated surface displacement in = 0.26 s


Detecting near surfaces ...
Overriding nearest with intersection of close gaps at 4960 out of 96794 points.
Overriding displacement on features :
   implicit features    : false
   explicit features    : true
   multi-patch features : false

Detected 3096 baffle edges out of 193977 edges.
Initially selected 10309 points out of 96794 for reverse attraction.
Selected 27089 points out of 96794 for reverse attraction.
Stringing feature edges : changed 0 points
Attraction:
     linear   : max:(0.997229 -0.59413 0.65956) avg:(-0.00304006 -3.7496e-05 -0.000318507)
     feature  : max:(0 0 0) avg:(0 0 0)
Feature analysis : total master points:96794 attraction to :
    feature point   : 0
    feature edge    : 0
    nearest surface : 0
    rest            : 96794

--> FOAM Warning : Displacement (0.000904517 -0.00253206 -0.0186946) at mesh point 368 coord (105.472 103.564 69.6599) points through the surrounding patch faces
Smoothing displacement ...
Iteration 0
Iteration 10
Iteration 20
Displacement smoothed in = 1.85 s


Moving mesh ...

Iteration 0
Moving mesh using displacement scaling : min:1  max:1
Checking faces in error :
    non-orthogonality > 65  degrees                        : 0
    faces with face pyramid volume < 1e-13                 : 56
    faces with face-decomposition tet quality < 1e-15      : 40
    faces with concavity > 80  degrees                     : 0
    faces with skewness > 4   (internal) or 20  (boundary) : 0
    faces with interpolation weights (0..1)  < 0.05        : 0
    faces with volume ratio of neighbour cells < 0.01      : 0
    faces with face twist < 0.02                           : 2
    faces on cells with determinant < 0.001                : 0

Iteration 1
Moving mesh using displacement scaling : min:0.75  max:1
Checking faces in error :
    non-orthogonality > 65  degrees                        : 0
    faces with face pyramid volume < 1e-13                 : 47
    faces with face-decomposition tet quality < 1e-15      : 33
    faces with concavity > 80  degrees                     : 0
    faces with skewness > 4   (internal) or 20  (boundary) : 0
    faces with interpolation weights (0..1)  < 0.05        : 0
    faces with volume ratio of neighbour cells < 0.01      : 0
    faces with face twist < 0.02                           : 1
    faces on cells with determinant < 0.001                : 0

Iteration 2
Moving mesh using displacement scaling : min:0.5625  max:1
Checking faces in error :
    non-orthogonality > 65  degrees                        : 0
    faces with face pyramid volume < 1e-13                 : 38
    faces with face-decomposition tet quality < 1e-15      : 37
    faces with concavity > 80  degrees                     : 1
    faces with skewness > 4   (internal) or 20  (boundary) : 0
    faces with interpolation weights (0..1)  < 0.05        : 0
    faces with volume ratio of neighbour cells < 0.01      : 0
    faces with face twist < 0.02                           : 0
    faces on cells with determinant < 0.001                : 0

Iteration 3
Moving mesh using displacement scaling : min:0.421875  max:1
Checking faces in error :
    non-orthogonality > 65  degrees                        : 0
    faces with face pyramid volume < 1e-13                 : 22
    faces with face-decomposition tet quality < 1e-15      : 45
    faces with concavity > 80  degrees                     : 2
    faces with skewness > 4   (internal) or 20  (boundary) : 0
    faces with interpolation weights (0..1)  < 0.05        : 0
    faces with volume ratio of neighbour cells < 0.01      : 0
    faces with face twist < 0.02                           : 2
    faces on cells with determinant < 0.001                : 0

Iteration 4
Moving mesh using displacement scaling : min:0.316406  max:1
Checking faces in error :
    non-orthogonality > 65  degrees                        : 0
    faces with face pyramid volume < 1e-13                 : 18
    faces with face-decomposition tet quality < 1e-15      : 47
    faces with concavity > 80  degrees                     : 3
    faces with skewness > 4   (internal) or 20  (boundary) : 0
    faces with interpolation weights (0..1)  < 0.05        : 0
    faces with volume ratio of neighbour cells < 0.01      : 0
    faces with face twist < 0.02                           : 1
    faces on cells with determinant < 0.001                : 0

Iteration 5
Displacement scaling for error reduction set to 0.
Moving mesh using displacement scaling : min:0.237305  max:1
Checking faces in error :
    non-orthogonality > 65  degrees                        : 0
    faces with face pyramid volume < 1e-13                 : 19
    faces with face-decomposition tet quality < 1e-15      : 34
    faces with concavity > 80  degrees                     : 1
    faces with skewness > 4   (internal) or 20  (boundary) : 0
    faces with interpolation weights (0..1)  < 0.05        : 0
    faces with volume ratio of neighbour cells < 0.01      : 0
    faces with face twist < 0.02                           : 0
    faces on cells with determinant < 0.001                : 0

Iteration 6
Moving mesh using displacement scaling : min:0  max:1
Checking faces in error :
    non-orthogonality > 65  degrees                        : 0
    faces with face pyramid volume < 1e-13                 : 0
    faces with face-decomposition tet quality < 1e-15      : 0
    faces with concavity > 80  degrees                     : 0
    faces with skewness > 4   (internal) or 20  (boundary) : 0
    faces with interpolation weights (0..1)  < 0.05        : 0
    faces with volume ratio of neighbour cells < 0.01      : 0
    faces with face twist < 0.02                           : 0
    faces on cells with determinant < 0.001                : 0
Successfully moved mesh
Moved mesh in = 2.77 s



Morph iteration 5
-----------------
Calculating patchDisplacement as distance to nearest surface point ...
Wanted displacement : average:0.100644 min:1.4257e-06 max:1.31648
Calculated surface displacement in = 0.24 s


Detecting near surfaces ...
Overriding nearest with intersection of close gaps at 5453 out of 96794 points.
Overriding displacement on features :
   implicit features    : false
   explicit features    : true
   multi-patch features : false

Detected 3223 baffle edges out of 193977 edges.
Initially selected 10310 points out of 96794 for reverse attraction.
Selected 27077 points out of 96794 for reverse attraction.
Stringing feature edges : changed 0 points
Attraction:
     linear   : max:(0.983329 -0.585848 0.650366) avg:(-0.00217198 -7.03535e-05 -0.000224584)
     feature  : max:(0 0 0) avg:(0 0 0)
Feature analysis : total master points:96794 attraction to :
    feature point   : 0
    feature edge    : 0
    nearest surface : 0
    rest            : 96794

--> FOAM Warning : Displacement (-0.00118683 -0.00332356 -0.0137559) at mesh point 368 coord (105.473 103.561 69.6412) points through the surrounding patch faces
Smoothing displacement ...
Iteration 0
Iteration 10
Iteration 20
Displacement smoothed in = 1.84 s


Moving mesh ...

Iteration 0
Moving mesh using displacement scaling : min:1  max:1
Checking faces in error :
    non-orthogonality > 65  degrees                        : 0
    faces with face pyramid volume < 1e-13                 : 69
    faces with face-decomposition tet quality < 1e-15      : 47
    faces with concavity > 80  degrees                     : 0
    faces with skewness > 4   (internal) or 20  (boundary) : 0
    faces with interpolation weights (0..1)  < 0.05        : 0
    faces with volume ratio of neighbour cells < 0.01      : 0
    faces with face twist < 0.02                           : 0
    faces on cells with determinant < 0.001                : 0

Iteration 1
Moving mesh using displacement scaling : min:0.75  max:1
Checking faces in error :
    non-orthogonality > 65  degrees                        : 0
    faces with face pyramid volume < 1e-13                 : 58
    faces with face-decomposition tet quality < 1e-15      : 48
    faces with concavity > 80  degrees                     : 0
    faces with skewness > 4   (internal) or 20  (boundary) : 0
    faces with interpolation weights (0..1)  < 0.05        : 0
    faces with volume ratio of neighbour cells < 0.01      : 0
    faces with face twist < 0.02                           : 1
    faces on cells with determinant < 0.001                : 0

Iteration 2
Moving mesh using displacement scaling : min:0.5625  max:1
Checking faces in error :
    non-orthogonality > 65  degrees                        : 0
    faces with face pyramid volume < 1e-13                 : 49
    faces with face-decomposition tet quality < 1e-15      : 40
    faces with concavity > 80  degrees                     : 1
    faces with skewness > 4   (internal) or 20  (boundary) : 0
    faces with interpolation weights (0..1)  < 0.05        : 0
    faces with volume ratio of neighbour cells < 0.01      : 0
    faces with face twist < 0.02                           : 1
    faces on cells with determinant < 0.001                : 0

Iteration 3
Moving mesh using displacement scaling : min:0.421875  max:1
Checking faces in error :
    non-orthogonality > 65  degrees                        : 0
    faces with face pyramid volume < 1e-13                 : 38
    faces with face-decomposition tet quality < 1e-15      : 42
    faces with concavity > 80  degrees                     : 2
    faces with skewness > 4   (internal) or 20  (boundary) : 0
    faces with interpolation weights (0..1)  < 0.05        : 0
    faces with volume ratio of neighbour cells < 0.01      : 0
    faces with face twist < 0.02                           : 6
    faces on cells with determinant < 0.001                : 0

Iteration 4
Moving mesh using displacement scaling : min:0.316406  max:1
Checking faces in error :
    non-orthogonality > 65  degrees                        : 0
    faces with face pyramid volume < 1e-13                 : 27
    faces with face-decomposition tet quality < 1e-15      : 49
    faces with concavity > 80  degrees                     : 0
    faces with skewness > 4   (internal) or 20  (boundary) : 0
    faces with interpolation weights (0..1)  < 0.05        : 0
    faces with volume ratio of neighbour cells < 0.01      : 0
    faces with face twist < 0.02                           : 1
    faces on cells with determinant < 0.001                : 0

Iteration 5
Displacement scaling for error reduction set to 0.
Moving mesh using displacement scaling : min:0.237305  max:1
Checking faces in error :
    non-orthogonality > 65  degrees                        : 0
    faces with face pyramid volume < 1e-13                 : 21
    faces with face-decomposition tet quality < 1e-15      : 44
    faces with concavity > 80  degrees                     : 4
    faces with skewness > 4   (internal) or 20  (boundary) : 0
    faces with interpolation weights (0..1)  < 0.05        : 0
    faces with volume ratio of neighbour cells < 0.01      : 0
    faces with face twist < 0.02                           : 0
    faces on cells with determinant < 0.001                : 0

Iteration 6
Moving mesh using displacement scaling : min:0  max:1
Checking faces in error :
    non-orthogonality > 65  degrees                        : 0
    faces with face pyramid volume < 1e-13                 : 0
    faces with face-decomposition tet quality < 1e-15      : 0
    faces with concavity > 80  degrees                     : 0
    faces with skewness > 4   (internal) or 20  (boundary) : 0
    faces with interpolation weights (0..1)  < 0.05        : 0
    faces with volume ratio of neighbour cells < 0.01      : 0
    faces with face twist < 0.02                           : 0
    faces on cells with determinant < 0.001                : 0
Successfully moved mesh
Moved mesh in = 2.84 s



Morph iteration 6
-----------------
Calculating patchDisplacement as distance to nearest surface point ...
Wanted displacement : average:0.0690407 min:3.13246e-07 max:1.29569
Calculated surface displacement in = 0.24 s


Detecting near surfaces ...
Overriding nearest with intersection of close gaps at 6148 out of 96794 points.
Overriding displacement on features :
   implicit features    : false
   explicit features    : true
   multi-patch features : false

Detected 3367 baffle edges out of 193977 edges.
Initially selected 10307 points out of 96794 for reverse attraction.
Selected 27110 points out of 96794 for reverse attraction.
Stringing feature edges : changed 0 points
Attraction:
     linear   : max:(0.967794 -0.576593 0.640091) avg:(-0.00161375 -7.02524e-05 -0.00015165)
     feature  : max:(0 0 0) avg:(0 0 0)
Feature analysis : total master points:96794 attraction to :
    feature point   : 0
    feature edge    : 0
    nearest surface : 0
    rest            : 96794

--> FOAM Warning : Displacement (-0.00107106 -0.00330518 -0.00981188) at mesh point 368 coord (105.472 103.558 69.6274) points through the surrounding patch faces
Smoothing displacement ...
Iteration 0
Iteration 10
Iteration 20
Displacement smoothed in = 1.84 s


Moving mesh ...

Iteration 0
Moving mesh using displacement scaling : min:1  max:1
Checking faces in error :
    non-orthogonality > 65  degrees                        : 0
    faces with face pyramid volume < 1e-13                 : 86
    faces with face-decomposition tet quality < 1e-15      : 91
    faces with concavity > 80  degrees                     : 0
    faces with skewness > 4   (internal) or 20  (boundary) : 0
    faces with interpolation weights (0..1)  < 0.05        : 0
    faces with volume ratio of neighbour cells < 0.01      : 0
    faces with face twist < 0.02                           : 9
    faces on cells with determinant < 0.001                : 0

Iteration 1
Moving mesh using displacement scaling : min:0.75  max:1
Checking faces in error :
    non-orthogonality > 65  degrees                        : 0
    faces with face pyramid volume < 1e-13                 : 72
    faces with face-decomposition tet quality < 1e-15      : 76
    faces with concavity > 80  degrees                     : 0
    faces with skewness > 4   (internal) or 20  (boundary) : 0
    faces with interpolation weights (0..1)  < 0.05        : 0
    faces with volume ratio of neighbour cells < 0.01      : 0
    faces with face twist < 0.02                           : 10
    faces on cells with determinant < 0.001                : 0

Iteration 2
Moving mesh using displacement scaling : min:0.5625  max:1
Checking faces in error :
    non-orthogonality > 65  degrees                        : 0
    faces with face pyramid volume < 1e-13                 : 61
    faces with face-decomposition tet quality < 1e-15      : 69
    faces with concavity > 80  degrees                     : 0
    faces with skewness > 4   (internal) or 20  (boundary) : 0
    faces with interpolation weights (0..1)  < 0.05        : 0
    faces with volume ratio of neighbour cells < 0.01      : 0
    faces with face twist < 0.02                           : 8
    faces on cells with determinant < 0.001                : 0

Iteration 3
Moving mesh using displacement scaling : min:0.421875  max:1
Checking faces in error :
    non-orthogonality > 65  degrees                        : 0
    faces with face pyramid volume < 1e-13                 : 50
    faces with face-decomposition tet quality < 1e-15      : 56
    faces with concavity > 80  degrees                     : 1
    faces with skewness > 4   (internal) or 20  (boundary) : 0
    faces with interpolation weights (0..1)  < 0.05        : 0
    faces with volume ratio of neighbour cells < 0.01      : 0
    faces with face twist < 0.02                           : 8
    faces on cells with determinant < 0.001                : 0

Iteration 4
Moving mesh using displacement scaling : min:0.316406  max:1
Checking faces in error :
    non-orthogonality > 65  degrees                        : 0
    faces with face pyramid volume < 1e-13                 : 40
    faces with face-decomposition tet quality < 1e-15      : 59
    faces with concavity > 80  degrees                     : 1
    faces with skewness > 4   (internal) or 20  (boundary) : 0
    faces with interpolation weights (0..1)  < 0.05        : 0
    faces with volume ratio of neighbour cells < 0.01      : 0
    faces with face twist < 0.02                           : 2
    faces on cells with determinant < 0.001                : 0

Iteration 5
Displacement scaling for error reduction set to 0.
Moving mesh using displacement scaling : min:0.237305  max:1
Checking faces in error :
    non-orthogonality > 65  degrees                        : 0
    faces with face pyramid volume < 1e-13                 : 29
    faces with face-decomposition tet quality < 1e-15      : 62
    faces with concavity > 80  degrees                     : 0
    faces with skewness > 4   (internal) or 20  (boundary) : 0
    faces with interpolation weights (0..1)  < 0.05        : 0
    faces with volume ratio of neighbour cells < 0.01      : 0
    faces with face twist < 0.02                           : 2
    faces on cells with determinant < 0.001                : 0

Iteration 6
Moving mesh using displacement scaling : min:0  max:1
Checking faces in error :
    non-orthogonality > 65  degrees                        : 0
    faces with face pyramid volume < 1e-13                 : 0
    faces with face-decomposition tet quality < 1e-15      : 0
    faces with concavity > 80  degrees                     : 0
    faces with skewness > 4   (internal) or 20  (boundary) : 0
    faces with interpolation weights (0..1)  < 0.05        : 0
    faces with volume ratio of neighbour cells < 0.01      : 0
    faces with face twist < 0.02                           : 0
    faces on cells with determinant < 0.001                : 0
Successfully moved mesh
Moved mesh in = 3.1 s



Morph iteration 7
-----------------
Calculating patchDisplacement as distance to nearest surface point ...
Wanted displacement : average:0.0447387 min:2.25055e-07 max:1.27242
Calculated surface displacement in = 0.24 s


Detecting near surfaces ...
Overriding nearest with intersection of close gaps at 7368 out of 96794 points.
Overriding displacement on features :
   implicit features    : false
   explicit features    : true
   multi-patch features : false

Detected 3490 baffle edges out of 193977 edges.
Initially selected 10321 points out of 96794 for reverse attraction.
Selected 27141 points out of 96794 for reverse attraction.
Stringing feature edges : changed 0 points
Attraction:
     linear   : max:(0.950413 -0.566237 0.628596) avg:(-0.001244 -2.73944e-05 -0.000155417)
     feature  : max:(0 0 0) avg:(0 0 0)
Feature analysis : total master points:96794 attraction to :
    feature point   : 0
    feature edge    : 0
    nearest surface : 0
    rest            : 96794

--> FOAM Warning : Displacement (4.99388e-05 -0.00421162 -0.00706842) at mesh point 368 coord (105.471 103.555 69.6176) points through the surrounding patch faces
Smoothing displacement ...
Iteration 0
Iteration 10
Iteration 20
Displacement smoothed in = 1.84 s


Moving mesh ...

Iteration 0
Moving mesh using displacement scaling : min:1  max:1
Checking faces in error :
    non-orthogonality > 65  degrees                        : 12
    faces with face pyramid volume < 1e-13                 : 106
    faces with face-decomposition tet quality < 1e-15      : 136
    faces with concavity > 80  degrees                     : 0
    faces with skewness > 4   (internal) or 20  (boundary) : 0
    faces with interpolation weights (0..1)  < 0.05        : 0
    faces with volume ratio of neighbour cells < 0.01      : 0
    faces with face twist < 0.02                           : 12
    faces on cells with determinant < 0.001                : 0

Iteration 1
Moving mesh using displacement scaling : min:0.75  max:1
Checking faces in error :
    non-orthogonality > 65  degrees                        : 3
    faces with face pyramid volume < 1e-13                 : 89
    faces with face-decomposition tet quality < 1e-15      : 128
    faces with concavity > 80  degrees                     : 0
    faces with skewness > 4   (internal) or 20  (boundary) : 0
    faces with interpolation weights (0..1)  < 0.05        : 0
    faces with volume ratio of neighbour cells < 0.01      : 0
    faces with face twist < 0.02                           : 6
    faces on cells with determinant < 0.001                : 0

Iteration 2
Moving mesh using displacement scaling : min:0.5625  max:1
Checking faces in error :
    non-orthogonality > 65  degrees                        : 4
    faces with face pyramid volume < 1e-13                 : 72
    faces with face-decomposition tet quality < 1e-15      : 108
    faces with concavity > 80  degrees                     : 0
    faces with skewness > 4   (internal) or 20  (boundary) : 0
    faces with interpolation weights (0..1)  < 0.05        : 0
    faces with volume ratio of neighbour cells < 0.01      : 0
    faces with face twist < 0.02                           : 7
    faces on cells with determinant < 0.001                : 0

Iteration 3
Moving mesh using displacement scaling : min:0.421875  max:1
Checking faces in error :
    non-orthogonality > 65  degrees                        : 1
    faces with face pyramid volume < 1e-13                 : 61
    faces with face-decomposition tet quality < 1e-15      : 99
    faces with concavity > 80  degrees                     : 0
    faces with skewness > 4   (internal) or 20  (boundary) : 0
    faces with interpolation weights (0..1)  < 0.05        : 0
    faces with volume ratio of neighbour cells < 0.01      : 0
    faces with face twist < 0.02                           : 7
    faces on cells with determinant < 0.001                : 0

Iteration 4
Moving mesh using displacement scaling : min:0.316406  max:1
Checking faces in error :
    non-orthogonality > 65  degrees                        : 1
    faces with face pyramid volume < 1e-13                 : 51
    faces with face-decomposition tet quality < 1e-15      : 79
    faces with concavity > 80  degrees                     : 1
    faces with skewness > 4   (internal) or 20  (boundary) : 0
    faces with interpolation weights (0..1)  < 0.05        : 0
    faces with volume ratio of neighbour cells < 0.01      : 0
    faces with face twist < 0.02                           : 15
    faces on cells with determinant < 0.001                : 0

Iteration 5
Displacement scaling for error reduction set to 0.
Moving mesh using displacement scaling : min:0.237305  max:1
Checking faces in error :
    non-orthogonality > 65  degrees                        : 0
    faces with face pyramid volume < 1e-13                 : 39
    faces with face-decomposition tet quality < 1e-15      : 80
    faces with concavity > 80  degrees                     : 2
    faces with skewness > 4   (internal) or 20  (boundary) : 0
    faces with interpolation weights (0..1)  < 0.05        : 0
    faces with volume ratio of neighbour cells < 0.01      : 0
    faces with face twist < 0.02                           : 13
    faces on cells with determinant < 0.001                : 0

Iteration 6
Moving mesh using displacement scaling : min:0  max:1
Checking faces in error :
    non-orthogonality > 65  degrees                        : 0
    faces with face pyramid volume < 1e-13                 : 0
    faces with face-decomposition tet quality < 1e-15      : 0
    faces with concavity > 80  degrees                     : 0
    faces with skewness > 4   (internal) or 20  (boundary) : 0
    faces with interpolation weights (0..1)  < 0.05        : 0
    faces with volume ratio of neighbour cells < 0.01      : 0
    faces with face twist < 0.02                           : 0
    faces on cells with determinant < 0.001                : 0
Successfully moved mesh
Moved mesh in = 3.5 s



Morph iteration 8
-----------------
Calculating patchDisplacement as distance to nearest surface point ...
Wanted displacement : average:0.0279879 min:7.38323e-08 max:1.24561
Calculated surface displacement in = 0.24 s


Detecting near surfaces ...
Overriding nearest with intersection of close gaps at 8821 out of 96794 points.
Overriding displacement on features :
   implicit features    : false
   explicit features    : true
   multi-patch features : false

Detected 3546 baffle edges out of 193977 edges.
Initially selected 10363 points out of 96794 for reverse attraction.
Selected 27220 points out of 96794 for reverse attraction.
Stringing feature edges : changed 0 points
Attraction:
     linear   : max:(0.55726 -1.14334 -0.180444) avg:(-0.000980018 -9.55041e-07 -8.61731e-05)
     feature  : max:(0 0 0) avg:(0 0 0)
Feature analysis : total master points:96794 attraction to :
    feature point   : 0
    feature edge    : 0
    nearest surface : 0
    rest            : 96794

--> FOAM Warning : Displacement (0.0016885 -0.00579972 -0.00932971) at mesh point 368 coord (105.471 103.55 69.6106) points through the surrounding patch faces
Smoothing displacement ...
Iteration 0
Iteration 10
Iteration 20
Displacement smoothed in = 1.85 s


Moving mesh ...

Iteration 0
Moving mesh using displacement scaling : min:1  max:1
Checking faces in error :
    non-orthogonality > 65  degrees                        : 50
    faces with face pyramid volume < 1e-13                 : 126
    faces with face-decomposition tet quality < 1e-15      : 234
    faces with concavity > 80  degrees                     : 3
    faces with skewness > 4   (internal) or 20  (boundary) : 0
    faces with interpolation weights (0..1)  < 0.05        : 0
    faces with volume ratio of neighbour cells < 0.01      : 0
    faces with face twist < 0.02                           : 38
    faces on cells with determinant < 0.001                : 0

Iteration 1
Moving mesh using displacement scaling : min:0.75  max:1
Checking faces in error :
    non-orthogonality > 65  degrees                        : 30
    faces with face pyramid volume < 1e-13                 : 105
    faces with face-decomposition tet quality < 1e-15      : 187
    faces with concavity > 80  degrees                     : 0
    faces with skewness > 4   (internal) or 20  (boundary) : 0
    faces with interpolation weights (0..1)  < 0.05        : 0
    faces with volume ratio of neighbour cells < 0.01      : 0
    faces with face twist < 0.02                           : 29
    faces on cells with determinant < 0.001                : 0

Iteration 2
Moving mesh using displacement scaling : min:0.5625  max:1
Checking faces in error :
    non-orthogonality > 65  degrees                        : 22
    faces with face pyramid volume < 1e-13                 : 90
    faces with face-decomposition tet quality < 1e-15      : 155
    faces with concavity > 80  degrees                     : 0
    faces with skewness > 4   (internal) or 20  (boundary) : 0
    faces with interpolation weights (0..1)  < 0.05        : 0
    faces with volume ratio of neighbour cells < 0.01      : 0
    faces with face twist < 0.02                           : 30
    faces on cells with determinant < 0.001                : 0

Iteration 3
Moving mesh using displacement scaling : min:0.421875  max:1
[...]
    faces with face pyramid volume < 1e-13                 : 69
    faces with face-decomposition tet quality < 1e-15      : 437
    faces with concavity > 80  degrees                     : 2
    faces with skewness > 4   (internal) or 20  (boundary) : 0
    faces with interpolation weights (0..1)  < 0.05        : 3
    faces with volume ratio of neighbour cells < 0.01      : 0
    faces with face twist < 0.02                           : 41
    faces on cells with determinant < 0.001                : 0

Iteration 1
Moving mesh using displacement scaling : min:0.75  max:1
Checking faces in error :
    non-orthogonality > 65  degrees                        : 39
    faces with face pyramid volume < 1e-13                 : 51
    faces with face-decomposition tet quality < 1e-15      : 365
    faces with concavity > 80  degrees                     : 0
    faces with skewness > 4   (internal) or 20  (boundary) : 0
    faces with interpolation weights (0..1)  < 0.05        : 1
    faces with volume ratio of neighbour cells < 0.01      : 0
    faces with face twist < 0.02                           : 31
    faces on cells with determinant < 0.001                : 0

Iteration 2
Moving mesh using displacement scaling : min:0.5625  max:1
Checking faces in error :
    non-orthogonality > 65  degrees                        : 29
    faces with face pyramid volume < 1e-13                 : 31
    faces with face-decomposition tet quality < 1e-15      : 309
    faces with concavity > 80  degrees                     : 0
    faces with skewness > 4   (internal) or 20  (boundary) : 0
    faces with interpolation weights (0..1)  < 0.05        : 0
    faces with volume ratio of neighbour cells < 0.01      : 0
    faces with face twist < 0.02                           : 38
    faces on cells with determinant < 0.001                : 0

Iteration 3
Moving mesh using displacement scaling : min:0.421875  max:1
Checking faces in error :
    non-orthogonality > 65  degrees                        : 19
    faces with face pyramid volume < 1e-13                 : 19
    faces with face-decomposition tet quality < 1e-15      : 268
    faces with concavity > 80  degrees                     : 0
    faces with skewness > 4   (internal) or 20  (boundary) : 0
    faces with interpolation weights (0..1)  < 0.05        : 0
    faces with volume ratio of neighbour cells < 0.01      : 0
    faces with face twist < 0.02                           : 47
    faces on cells with determinant < 0.001                : 0

Iteration 4
Moving mesh using displacement scaling : min:0.316406  max:1
Checking faces in error :
    non-orthogonality > 65  degrees                        : 14
    faces with face pyramid volume < 1e-13                 : 14
    faces with face-decomposition tet quality < 1e-15      : 230
    faces with concavity > 80  degrees                     : 0
    faces with skewness > 4   (internal) or 20  (boundary) : 0
    faces with interpolation weights (0..1)  < 0.05        : 0
    faces with volume ratio of neighbour cells < 0.01      : 0
    faces with face twist < 0.02                           : 46
    faces on cells with determinant < 0.001                : 0

Iteration 5
Displacement scaling for error reduction set to 0.
Moving mesh using displacement scaling : min:0.237305  max:1
Checking faces in error :
    non-orthogonality > 65  degrees                        : 9
    faces with face pyramid volume < 1e-13                 : 5
    faces with face-decomposition tet quality < 1e-15      : 202
    faces with concavity > 80  degrees                     : 0
    faces with skewness > 4   (internal) or 20  (boundary) : 0
    faces with interpolation weights (0..1)  < 0.05        : 0
    faces with volume ratio of neighbour cells < 0.01      : 0
    faces with face twist < 0.02                           : 51
    faces on cells with determinant < 0.001                : 0

Iteration 6
Moving mesh using displacement scaling : min:0  max:1
Checking faces in error :
    non-orthogonality > 65  degrees                        : 1
    faces with face pyramid volume < 1e-13                 : 0
    faces with face-decomposition tet quality < 1e-15      : 0
    faces with concavity > 80  degrees                     : 0
    faces with skewness > 4   (internal) or 20  (boundary) : 0
    faces with interpolation weights (0..1)  < 0.05        : 0
    faces with volume ratio of neighbour cells < 0.01      : 0
    faces with face twist < 0.02                           : 0
    faces on cells with determinant < 0.001                : 0

Iteration 7
Moving mesh using displacement scaling : min:0  max:1
Checking faces in error :
    non-orthogonality > 65  degrees                        : 1
    faces with face pyramid volume < 1e-13                 : 0
    faces with face-decomposition tet quality < 1e-15      : 0
    faces with concavity > 80  degrees                     : 0
    faces with skewness > 4   (internal) or 20  (boundary) : 0
    faces with interpolation weights (0..1)  < 0.05        : 0
    faces with volume ratio of neighbour cells < 0.01      : 0
    faces with face twist < 0.02                           : 0
    faces on cells with determinant < 0.001                : 0

Iteration 8
Moving mesh using displacement scaling : min:0  max:1
Checking faces in error :
    non-orthogonality > 65  degrees                        : 1
    faces with face pyramid volume < 1e-13                 : 0
    faces with face-decomposition tet quality < 1e-15      : 0
    faces with concavity > 80  degrees                     : 0
    faces with skewness > 4   (internal) or 20  (boundary) : 0
    faces with interpolation weights (0..1)  < 0.05        : 0
    faces with volume ratio of neighbour cells < 0.01      : 0
    faces with face twist < 0.02                           : 0
    faces on cells with determinant < 0.001                : 0

Iteration 9
Moving mesh using displacement scaling : min:0  max:1
Checking faces in error :
    non-orthogonality > 65  degrees                        : 1
    faces with face pyramid volume < 1e-13                 : 0
    faces with face-decomposition tet quality < 1e-15      : 0
    faces with concavity > 80  degrees                     : 0
    faces with skewness > 4   (internal) or 20  (boundary) : 0
    faces with interpolation weights (0..1)  < 0.05        : 0
    faces with volume ratio of neighbour cells < 0.01      : 0
    faces with face twist < 0.02                           : 0
    faces on cells with determinant < 0.001                : 0
Moved mesh in = 6.05 s


--> FOAM Warning : 
    From function void Foam::snappySnapDriver::doSnap(const Foam::dictionary&, const Foam::dictionary&, Foam::scalar, Foam::scalar, const Foam::snapParameters&)
    in file snappyHexMeshDriver/snappySnapDriver.C at line 3135
    Did not succesfully snap mesh. Continuing to snap to resolve easy
    surfaces but the resulting mesh will not satisfy your quality constraints


Morph iteration 9
-----------------
Calculating patchDisplacement as distance to nearest surface point ...
Wanted displacement : average:0.031008 min:1.12142e-07 max:1.51275
Calculated surface displacement in = 0.29 s


Detecting near surfaces ...
Overriding nearest with intersection of close gaps at 17942 out of 109279 points.
Overriding displacement on features :
   implicit features    : false
   explicit features    : true
   multi-patch features : false

Detected 5365 baffle edges out of 221595 edges.
Initially selected 15548 points out of 109279 for reverse attraction.
Selected 40916 points out of 109279 for reverse attraction.
Stringing feature edges : changed 0 points
Attraction:
     linear   : max:(-1.19729 -2.16154 0.106376) avg:(8.89418e-06 -9.54177e-05 -4.86643e-06)
     feature  : max:(0 0 0) avg:(0 0 0)
Feature analysis : total master points:109279 attraction to :
    feature point   : 0
    feature edge    : 0
    nearest surface : 0
    rest            : 109279

--> FOAM Warning : Displacement (0.0910023 -0.0472159 0.00877962) at mesh point 471 coord (106.129 104.484 80.8704) points through the surrounding patch faces
Smoothing displacement ...
Iteration 0
Iteration 10
Iteration 20
Displacement smoothed in = 1.64 s


Moving mesh ...

Iteration 0
Moving mesh using displacement scaling : min:1  max:1
Checking faces in error :
    non-orthogonality > 65  degrees                        : 136
    faces with face pyramid volume < 1e-13                 : 243
    faces with face-decomposition tet quality < 1e-15      : 1376
    faces with concavity > 80  degrees                     : 22
    faces with skewness > 4   (internal) or 20  (boundary) : 0
    faces with interpolation weights (0..1)  < 0.05        : 27
    faces with volume ratio of neighbour cells < 0.01      : 0
    faces with face twist < 0.02                           : 41
    faces on cells with determinant < 0.001                : 4

Iteration 1
Moving mesh using displacement scaling : min:0.75  max:1
Checking faces in error :
    non-orthogonality > 65  degrees                        : 100
    faces with face pyramid volume < 1e-13                 : 205
    faces with face-decomposition tet quality < 1e-15      : 918
    faces with concavity > 80  degrees                     : 10
    faces with skewness > 4   (internal) or 20  (boundary) : 0
    faces with interpolation weights (0..1)  < 0.05        : 14
    faces with volume ratio of neighbour cells < 0.01      : 0
    faces with face twist < 0.02                           : 54
    faces on cells with determinant < 0.001                : 0

Iteration 2
Moving mesh using displacement scaling : min:0.5625  max:1
Checking faces in error :
    non-orthogonality > 65  degrees                        : 71
    faces with face pyramid volume < 1e-13                 : 180
    faces with face-decomposition tet quality < 1e-15      : 699
    faces with concavity > 80  degrees                     : 4
    faces with skewness > 4   (internal) or 20  (boundary) : 0
    faces with interpolation weights (0..1)  < 0.05        : 3
    faces with volume ratio of neighbour cells < 0.01      : 0
    faces with face twist < 0.02                           : 60
    faces on cells with determinant < 0.001                : 0

Iteration 3
Moving mesh using displacement scaling : min:0.421875  max:1
Checking faces in error :
    non-orthogonality > 65  degrees                        : 63
    faces with face pyramid volume < 1e-13                 : 158
    faces with face-decomposition tet quality < 1e-15      : 553
    faces with concavity > 80  degrees                     : 4
    faces with skewness > 4   (internal) or 20  (boundary) : 0
    faces with interpolation weights (0..1)  < 0.05        : 0
    faces with volume ratio of neighbour cells < 0.01      : 0
    faces with face twist < 0.02                           : 68
    faces on cells with determinant < 0.001                : 0

Iteration 4
Moving mesh using displacement scaling : min:0.316406  max:1
Checking faces in error :
    non-orthogonality > 65  degrees                        : 58
    faces with face pyramid volume < 1e-13                 : 101
    faces with face-decomposition tet quality < 1e-15      : 442
    faces with concavity > 80  degrees                     : 2
    faces with skewness > 4   (internal) or 20  (boundary) : 0
    faces with interpolation weights (0..1)  < 0.05        : 0
    faces with volume ratio of neighbour cells < 0.01      : 0
    faces with face twist < 0.02                           : 104
    faces on cells with determinant < 0.001                : 0

Iteration 5
Displacement scaling for error reduction set to 0.
Moving mesh using displacement scaling : min:0.237305  max:1
Checking faces in error :
    non-orthogonality > 65  degrees                        : 49
    faces with face pyramid volume < 1e-13                 : 72
    faces with face-decomposition tet quality < 1e-15      : 374
    faces with concavity > 80  degrees                     : 2
    faces with skewness > 4   (internal) or 20  (boundary) : 0
    faces with interpolation weights (0..1)  < 0.05        : 0
    faces with volume ratio of neighbour cells < 0.01      : 0
    faces with face twist < 0.02                           : 84
    faces on cells with determinant < 0.001                : 0

Iteration 6
Moving mesh using displacement scaling : min:0  max:1
Checking faces in error :
    non-orthogonality > 65  degrees                        : 3
    faces with face pyramid volume < 1e-13                 : 0
    faces with face-decomposition tet quality < 1e-15      : 6
    faces with concavity > 80  degrees                     : 0
    faces with skewness > 4   (internal) or 20  (boundary) : 0
    faces with interpolation weights (0..1)  < 0.05        : 0
    faces with volume ratio of neighbour cells < 0.01      : 0
    faces with face twist < 0.02                           : 0
    faces on cells with determinant < 0.001                : 0

Iteration 7
Moving mesh using displacement scaling : min:0  max:1
Checking faces in error :
    non-orthogonality > 65  degrees                        : 3
    faces with face pyramid volume < 1e-13                 : 0
    faces with face-decomposition tet quality < 1e-15      : 0
    faces with concavity > 80  degrees                     : 0
    faces with skewness > 4   (internal) or 20  (boundary) : 0
    faces with interpolation weights (0..1)  < 0.05        : 0
    faces with volume ratio of neighbour cells < 0.01      : 0
    faces with face twist < 0.02                           : 0
    faces on cells with determinant < 0.001                : 0

Iteration 8
Moving mesh using displacement scaling : min:0  max:1
Checking faces in error :
    non-orthogonality > 65  degrees                        : 2
    faces with face pyramid volume < 1e-13                 : 0
    faces with face-decomposition tet quality < 1e-15      : 0
    faces with concavity > 80  degrees                     : 0
    faces with skewness > 4   (internal) or 20  (boundary) : 0
    faces with interpolation weights (0..1)  < 0.05        : 0
    faces with volume ratio of neighbour cells < 0.01      : 0
    faces with face twist < 0.02                           : 0
    faces on cells with determinant < 0.001                : 0

Iteration 9
Moving mesh using displacement scaling : min:0  max:1
Checking faces in error :
    non-orthogonality > 65  degrees                        : 2
    faces with face pyramid volume < 1e-13                 : 0
    faces with face-decomposition tet quality < 1e-15      : 0
    faces with concavity > 80  degrees                     : 0
    faces with skewness > 4   (internal) or 20  (boundary) : 0
    faces with interpolation weights (0..1)  < 0.05        : 0
    faces with volume ratio of neighbour cells < 0.01      : 0
    faces with face twist < 0.02                           : 0
    faces on cells with determinant < 0.001                : 0
Moved mesh in = 7.63 s


--> FOAM Warning : 
    From function void Foam::snappySnapDriver::doSnap(const Foam::dictionary&, const Foam::dictionary&, Foam::scalar, Foam::scalar, const Foam::snapParameters&)
    in file snappyHexMeshDriver/snappySnapDriver.C at line 3135
    Did not succesfully snap mesh. Continuing to snap to resolve easy
    surfaces but the resulting mesh will not satisfy your quality constraints

Converting 25505 baffles back into zoned faces ...
Edge intersection testing:
    Number of edges             : 517569
    Number of edges to retest   : 25505
    Number of intersected edges : 107257
Converted baffles in = 0.87 s


Repatching faces according to nearest surface ...
Repatched 0 faces in = 0.47 s


Edge intersection testing:
    Number of edges             : 517569
    Number of edges to retest   : 269303
    Number of intersected edges : 107463
Merging 18920 sets of faces.

Edge intersection testing:
    Number of edges             : 494022
    Number of edges to retest   : 77487
    Number of intersected edges : 84055

Undo iteration 0
----------------
Checking faces in error :
    non-orthogonality > 65  degrees                        : 2
    faces with face pyramid volume < 1e-13                 : 0
    faces with face-decomposition tet quality < 1e-15      : 3
    faces with concavity > 80  degrees                     : 0
    faces with skewness > 4   (internal) or 20  (boundary) : 0
    faces with interpolation weights (0..1)  < 0.05        : 0
    faces with volume ratio of neighbour cells < 0.01      : 0
    faces with face twist < 0.02                           : 0
    faces on cells with determinant < 0.001                : 0
Masters that need to be restored:4
Edge intersection testing:
    Number of edges             : 494029
    Number of edges to retest   : 23
    Number of intersected edges : 84058


Undo iteration 1
----------------
Checking faces in error :
    non-orthogonality > 65  degrees                        : 2
    faces with face pyramid volume < 1e-13                 : 0
    faces with face-decomposition tet quality < 1e-15      : 0
    faces with concavity > 80  degrees                     : 0
    faces with skewness > 4   (internal) or 20  (boundary) : 0
    faces with interpolation weights (0..1)  < 0.05        : 0
    faces with volume ratio of neighbour cells < 0.01      : 0
    faces with face twist < 0.02                           : 0
    faces on cells with determinant < 0.001                : 0
Masters that need to be restored:0

Merging all points on surface that
- are used by only two boundary faces and
- make an angle with a cosine of more than 0.866025.

Removing 12830 straight edge points ...

Edge intersection testing:
    Number of edges             : 494029
    Number of edges to retest   : 67519
    Number of intersected edges : 84046

Undo iteration 0
----------------
Checking faces in error :
    non-orthogonality > 65  degrees                        : 2
    faces with face pyramid volume < 1e-13                 : 0
    faces with face-decomposition tet quality < 1e-15      : 4
    faces with concavity > 80  degrees                     : 0
    faces with skewness > 4   (internal) or 20  (boundary) : 0
    faces with interpolation weights (0..1)  < 0.05        : 0
    faces with volume ratio of neighbour cells < 0.01      : 0
    faces with face twist < 0.02                           : 0
    faces on cells with determinant < 0.001                : 0
Detected 0 error faces on boundaries that have been merged. These will be restored to their original faces.

Detected 6 error faces in mesh. Restoring neighbours of faces in error.

Edge intersection testing:
    Number of edges             : 494029
    Number of edges to retest   : 267
    Number of intersected edges : 84046

Removing zero-sized patches:
    frontAndBack type patch at position 0
    Fan.stl type patch at position 3
    HPSpool.stl type patch at position 4
    LPSpool.stl type patch at position 5
    LPSpool.stl_slave type patch at position 6

Snapped mesh : cells:146404  faces:494029  points:207980
Cells per refinement level:
    0	249
    1	3868
    2	19702
    3	122585
Writing mesh to time constant
Wrote mesh in = 6.65 s.
Mesh snapped in = 67.25 s.
Checking final mesh ...
Checking faces in error :
    non-orthogonality > 65  degrees                        : 2
    faces with face pyramid volume < 1e-13                 : 0
    faces with face-decomposition tet quality < 1e-15      : 0
    faces with concavity > 80  degrees                     : 0
    faces with skewness > 4   (internal) or 20  (boundary) : 0
    faces with interpolation weights (0..1)  < 0.05        : 0
    faces with volume ratio of neighbour cells < 0.01      : 0
    faces with face twist < 0.02                           : 0
    faces on cells with determinant < 0.001                : 0
Finished meshing with 2 illegal faces (concave, zero area or negative cell pyramid volume)
Finished meshing in = 108.47 s.
End

